LTspice 26.0.2 for MacOS
Circuit: /Users/skylar/Desktop/Digilog_Console/Analog Design/2 Design - EQ/1 State Variable Filter/state_var.net
Start Time: Thu Jul 16 11:57:19 2026
solver = Normal
Maximum thread count: 10
tnom = 27
temp = 27
method = trap
Early termination of direct N-R iteration.
Direct Newton iteration failed to find operating point.
Starting Gmin stepping
Gmin stepping failed to find operating point. Use".option gminsteps=0" to skip all Gmin stepping.
Starting source stepping with srcstepmethod=0
Source stepping succeeded in finding the operating point.

Total elapsed time: 0.121 seconds.

Files loaded:
/Users/skylar/Desktop/Digilog_Console/Analog Design/2 Design - EQ/1 State Variable Filter/state_var.net
/Users/skylar/Desktop/Digilog_Console/Analog Design/2 Design - EQ/1 State Variable Filter/NE5532.sub

