LTspice 26.0.2 for MacOS
Circuit: /Users/skylar/Desktop/DigitalAnalogConsole/Analog Design/2 Design - EQ/4 One Band VCEQ/vcf-q.net
Start Time: Tue Jul 21 20:38:36 2026

.step cv=-14
solver = Normal
Maximum thread count: 10
tnom = 27
temp = 27
method = trap
Early termination of direct N-R iteration.
Direct Newton iteration failed to find operating point.
Starting Gmin stepping
Gmin stepping failed to find operating point. Use".option gminsteps=0" to skip all Gmin stepping.
Starting source stepping with srcstepmethod=0
Starting source stepping with srcstepmethod=1
Source stepping failed to find operating point. Use ".options srcsteps=0" to skip all source stepping.
Starting Gmin stepping level 2
Gmin stepping level 2 failed to find operating point. Use".option gminsteps=0" to skip all Gmin stepping.
Starting source stepping with srcstepmethod=1, level 2
Source stepping level 2 succeeded in finding the operating point.


.step cv=-13
Direct Newton iteration failed to find operating point.
Starting Gmin stepping
Gmin stepping failed to find operating point. Use".option gminsteps=0" to skip all Gmin stepping.
Starting source stepping with srcstepmethod=1
Source stepping succeeded in finding the operating point.


.step cv=-12
Direct Newton iteration failed to find operating point.
Starting Gmin stepping
Gmin stepping failed to find operating point. Use".option gminsteps=0" to skip all Gmin stepping.
Starting source stepping with srcstepmethod=1
Source stepping succeeded in finding the operating point.


.step cv=-11
Direct Newton iteration failed to find operating point.
Starting Gmin stepping
Gmin stepping failed to find operating point. Use".option gminsteps=0" to skip all Gmin stepping.
Starting source stepping with srcstepmethod=1
Source stepping succeeded in finding the operating point.


.step cv=-10
Direct Newton iteration failed to find operating point.
Starting Gmin stepping
Gmin stepping failed to find operating point. Use".option gminsteps=0" to skip all Gmin stepping.
Starting source stepping with srcstepmethod=1
Source stepping succeeded in finding the operating point.


.step cv=-9
Direct Newton iteration failed to find operating point.
Starting Gmin stepping
Gmin stepping failed to find operating point. Use".option gminsteps=0" to skip all Gmin stepping.
Starting source stepping with srcstepmethod=1
Source stepping succeeded in finding the operating point.


.step cv=-8
Direct Newton iteration failed to find operating point.
Starting Gmin stepping
Gmin stepping failed to find operating point. Use".option gminsteps=0" to skip all Gmin stepping.
Starting source stepping with srcstepmethod=1
Source stepping succeeded in finding the operating point.


.step cv=-7
Direct Newton iteration failed to find operating point.
Starting Gmin stepping
Gmin stepping failed to find operating point. Use".option gminsteps=0" to skip all Gmin stepping.
Starting source stepping with srcstepmethod=1
Source stepping succeeded in finding the operating point.


.step cv=-6
Direct Newton iteration failed to find operating point.
Starting Gmin stepping
Gmin stepping failed to find operating point. Use".option gminsteps=0" to skip all Gmin stepping.
Starting source stepping with srcstepmethod=1
Source stepping succeeded in finding the operating point.


.step cv=-5
Direct Newton iteration failed to find operating point.
Starting Gmin stepping
Gmin stepping failed to find operating point. Use".option gminsteps=0" to skip all Gmin stepping.
Starting source stepping with srcstepmethod=1
Source stepping succeeded in finding the operating point.


.step cv=-4
Direct Newton iteration failed to find operating point.
Starting Gmin stepping
Gmin stepping failed to find operating point. Use".option gminsteps=0" to skip all Gmin stepping.
Starting source stepping with srcstepmethod=1
Source stepping succeeded in finding the operating point.


.step cv=-3
Direct Newton iteration failed to find operating point.
Starting Gmin stepping
Gmin stepping succeeded in finding the operating point.


.step cv=-2
Direct Newton iteration failed to find operating point.
Starting Gmin stepping
Gmin stepping failed to find operating point. Use".option gminsteps=0" to skip all Gmin stepping.
Starting source stepping with srcstepmethod=1
Source stepping succeeded in finding the operating point.


.step cv=-1
Direct Newton iteration failed to find operating point.
Starting Gmin stepping
Gmin stepping failed to find operating point. Use".option gminsteps=0" to skip all Gmin stepping.
Starting source stepping with srcstepmethod=1
Source stepping succeeded in finding the operating point.


.step cv=0
Direct Newton iteration failed to find operating point.
Starting Gmin stepping
Gmin stepping failed to find operating point. Use".option gminsteps=0" to skip all Gmin stepping.
Starting source stepping with srcstepmethod=1
Source stepping succeeded in finding the operating point.


.step cv=1
Direct Newton iteration failed to find operating point.
Starting Gmin stepping
Gmin stepping failed to find operating point. Use".option gminsteps=0" to skip all Gmin stepping.
Starting source stepping with srcstepmethod=1
Starting source stepping with srcstepmethod=0
Source stepping failed to find operating point. Use ".options srcsteps=0" to skip all source stepping.
Starting Gmin stepping level 2
Gmin stepping level 2 failed to find operating point. Use".option gminsteps=0" to skip all Gmin stepping.
Starting source stepping with srcstepmethod=0, level 2
Source stepping aborted.
Starting source stepping with srcstepmethod=1, level 2
Source stepping aborted.
Pseudo Transient cancelled by user at 5 µs
Pseudo Transient level 2 cancelled by user at 5 µs

Simulation Failed: Iteration limit reached

Total elapsed time: 17.471 seconds.

Files loaded:
/Users/skylar/Desktop/DigitalAnalogConsole/Analog Design/2 Design - EQ/4 One Band VCEQ/vcf-q.net
/Users/skylar/Desktop/DigitalAnalogConsole/Analog Design/2 Design - EQ/4 One Band VCEQ/NE5532.sub
/Users/skylar/Desktop/DigitalAnalogConsole/Analog Design/2 Design - EQ/4 One Band VCEQ/LM13700.sub
/Users/skylar/Desktop/DigitalAnalogConsole/Analog Design/2 Design - EQ/4 One Band VCEQ/OPAx134.LIB

