LTspice 26.0.2 for MacOS
Circuit: /Users/skylar/Desktop/Digilog_Console/Analog Design/2 Design - EQ/2 VCF/vcf.net
Start Time: Thu Jul 16 12:00:46 2026
solver = Normal
Maximum thread count: 10
tnom = 27
temp = 27
method = trap
Early termination of direct N-R iteration.
Direct Newton iteration failed to find operating point.
Starting Gmin stepping
Gmin stepping failed to find operating point. Use".option gminsteps=0" to skip all Gmin stepping.
Starting source stepping with srcstepmethod=0
Source stepping succeeded in finding the operating point.

Total elapsed time: 0.192 seconds.

Files loaded:
/Users/skylar/Desktop/Digilog_Console/Analog Design/2 Design - EQ/2 VCF/vcf.net
/Users/skylar/Desktop/Digilog_Console/Analog Design/2 Design - EQ/2 VCF/NE5532.sub
/Users/skylar/Desktop/Digilog_Console/Analog Design/2 Design - EQ/2 VCF/LM13700.sub

